nrt/data/IEEE118/IEEE118_BasicTestCases/IEEE118_NodeFault/IEEE118.iidm
<?xml version="1.0" encoding="UTF-8"?>
<!--
    Copyright (c) 2023, RTE (http://www.rte-france.com)
    See AUTHORS.txt
    All rights reserved.
    This Source Code Form is subject to the terms of the Mozilla Public
    License, v. 2.0. If a copy of the MPL was not distributed with this
    file, you can obtain one at http://mozilla.org/MPL/2.0/.
    SPDX-License-Identifier: MPL-2.0

    This file is part of Dynawo, an hybrid C++/Modelica open source suite
    of simulation tools for power systems.
-->
<iidm:network xmlns:iidm="http://www.itesla_project.eu/schema/iidm/1_0" id="IEEE118bus" caseDate="2021-05-14T08:59:25.732+02:00" forecastDistance="0" sourceFormat="PSS/E">
    <iidm:substation id="S14">
        <iidm:voltageLevel id="VL1" nominalV="138.0" topologyKind="BUS_BREAKER">
            <iidm:busBreakerTopology>
                <iidm:bus id="B1" name="RIVERSDE" v="131.79" angle="-10.047095919047239"/>
            </iidm:busBreakerTopology>
            <iidm:generator id="B1-G1" energySource="OTHER" minP="-10000.0" maxP="10000.0" voltageRegulatorOn="true" targetP="0.0" targetV="131.79" targetQ="-3.104" bus="B1" connectableBus="B1" p="-0.0" q="3.103907548438535">
                <iidm:regulatingTerminal id="B1-L1"/>
                <iidm:minMaxReactiveLimits minQ="-5.0" maxQ="15.0"/>
            </iidm:generator>
            <iidm:load id="B1-L1" loadType="UNDEFINED" p0="51.0" q0="27.0" bus="B1" connectableBus="B1" p="51.0" q="27.0"/>
        </iidm:voltageLevel>
    </iidm:substation>
    <iidm:substation id="S19">
        <iidm:voltageLevel id="VL2" nominalV="138.0" topologyKind="BUS_BREAKER">
            <iidm:busBreakerTopology>
                <iidm:bus id="B2" name="POKAGON" v="134.05220047982814" angle="-9.507069667535603"/>
            </iidm:busBreakerTopology>
            <iidm:load id="B2-L1" loadType="UNDEFINED" p0="20.0" q0="9.0" bus="B2" connectableBus="B2" p="20.0" q="9.0"/>
        </iidm:voltageLevel>
    </iidm:substation>
    <iidm:substation id="S17">
        <iidm:voltageLevel id="VL3" nominalV="138.0" topologyKind="BUS_BREAKER">
            <iidm:busBreakerTopology>
                <iidm:bus id="B3" name="HICKRYCK" v="133.54147747890667" angle="-9.163737528001612"/>
            </iidm:busBreakerTopology>
            <iidm:load id="B3-L1" loadType="UNDEFINED" p0="39.0" q0="10.0" bus="B3" connectableBus="B3" p="39.0" q="10.0"/>
        </iidm:voltageLevel>
    </iidm:substation>
    <iidm:substation id="S23">
        <iidm:voltageLevel id="VL4" nominalV="138.0" topologyKind="BUS_BREAKER">
            <iidm:busBreakerTopology>
                <iidm:bus id="B4" name="NWCARLSL" v="137.724" angle="-5.44626644709919"/>
            </iidm:busBreakerTopology>
            <iidm:generator id="B4-G1" energySource="OTHER" minP="-10000.0" maxP="10000.0" voltageRegulatorOn="true" targetP="0.0" targetV="137.724" targetQ="-15.005" bus="B4" connectableBus="B4" p="-0.0" q="15.005792294177066">
                <iidm:regulatingTerminal id="B4-L1"/>
                <iidm:minMaxReactiveLimits minQ="-300.0" maxQ="300.0"/>
            </iidm:generator>
            <iidm:load id="B4-L1" loadType="UNDEFINED" p0="39.0" q0="12.0" bus="B4" connectableBus="B4" p="39.0" q="12.0"/>
        </iidm:voltageLevel>
    </iidm:substation>
    <iidm:substation id="S21">
        <iidm:voltageLevel id="VL5" nominalV="138.0" topologyKind="BUS_BREAKER">
            <iidm:busBreakerTopology>
                <iidm:bus id="B5" name="OLIVE" v="138.27383738631283" angle="-5.001254811901955"/>
            </iidm:busBreakerTopology>
            <iidm:shunt id="B5-SH 1" bPerSection="-0.002100399075824407" gPerSection="0.0" maximumSectionCount="1" currentSectionCount="1" voltageRegulatorOn="false" bus="B5" connectableBus="B5"  q="40.15890381335115"/>
        </iidm:voltageLevel>
        <iidm:voltageLevel id="VL8" nominalV="138.0" topologyKind="BUS_BREAKER">
            <iidm:busBreakerTopology>
                <iidm:bus id="B8" name="OLIVE" v="140.07" angle="0.019284594704573155"/>
            </iidm:busBreakerTopology>
            <iidm:generator id="B8-G1" energySource="OTHER" minP="-10000.0" maxP="10000.0" voltageRegulatorOn="true" targetP="0.0" targetV="140.07" targetQ="62.758" bus="B8" connectableBus="B8" p="-0.0" q="-62.75642917749026">
                <iidm:regulatingTerminal id="B8-L1"/>
                <iidm:minMaxReactiveLimits minQ="-300.0" maxQ="300.0"/>
            </iidm:generator>
            <iidm:load id="B8-L1" loadType="UNDEFINED" p0="28.0" q0="0.0" bus="B8" connectableBus="B8" p="28.0" q="0.0"/>
        </iidm:voltageLevel>
        <iidm:twoWindingsTransformer id="T-8-5-1" r="0.0" x="5.084748" g="0.0" b="0.0" ratedU1="138.0" ratedU2="138.0" bus1="B8" connectableBus1="B8" voltageLevelId1="VL8" bus2="B5" connectableBus2="B5" voltageLevelId2="VL5" p1="338.41633940628947" q1="124.72289484638436" p2="-338.41633940628947" q2="-92.01392212726188">
            <iidm:ratioTapChanger lowTapPosition="0" tapPosition="0" loadTapChangingCapabilities="false">
                <iidm:step r="0.0" x="0.0" g="3.0688757762374674" b="3.0688757762374674" rho="1.015228426395939"/>
            </iidm:ratioTapChanger>
        </iidm:twoWindingsTransformer>
    </iidm:substation>
    <iidm:substation id="S27">
        <iidm:voltageLevel id="VL6" nominalV="138.0" topologyKind="BUS_BREAKER">
            <iidm:busBreakerTopology>
                <iidm:bus id="B6" name="KANKAKEE" v="136.62" angle="-7.728095780577961"/>
            </iidm:busBreakerTopology>
            <iidm:generator id="B6-G1" energySource="OTHER" minP="-10000.0" maxP="10000.0" voltageRegulatorOn="true" targetP="0.0" targetV="136.62" targetQ="15.93" bus="B6" connectableBus="B6" p="-0.0" q="-15.929667233719208">
                <iidm:regulatingTerminal id="B6-L1"/>
                <iidm:minMaxReactiveLimits minQ="-13.0" maxQ="50.0"/>
            </iidm:generator>
            <iidm:load id="B6-L1" loadType="UNDEFINED" p0="52.0" q0="22.0" bus="B6" connectableBus="B6" p="52.0" q="22.0"/>
        </iidm:voltageLevel>
    </iidm:substation>
    <iidm:substation id="S25">
        <iidm:voltageLevel id="VL7" nominalV="138.0" topologyKind="BUS_BREAKER">
            <iidm:busBreakerTopology>
                <iidm:bus id="B7" name="JACKSNRD" v="136.52724389765265" angle="-8.172448178156927"/>
            </iidm:busBreakerTopology>
            <iidm:load id="B7-L1" loadType="UNDEFINED" p0="19.0" q0="2.0" bus="B7" connectableBus="B7" p="19.0" q="2.0"/>
        </iidm:voltageLevel>
    </iidm:substation>
    <iidm:substation id="S29">
        <iidm:voltageLevel id="VL9" nominalV="138.0" topologyKind="BUS_BREAKER">
            <iidm:busBreakerTopology>
                <iidm:bus id="B9" name="BEQUINE" v="143.922712305607" angle="7.273389666310037"/>
            </iidm:busBreakerTopology>
        </iidm:voltageLevel>
    </iidm:substation>
    <iidm:substation id="S63">
        <iidm:voltageLevel id="VL10" nominalV="138.0" topologyKind="BUS_BREAKER">
            <iidm:busBreakerTopology>
                <iidm:bus id="B10" name="BREED" v="144.9" angle="14.854298814210907"/>
            </iidm:busBreakerTopology>
            <iidm:generator id="B10-G1" energySource="OTHER" minP="-10000.0" maxP="10000.0" voltageRegulatorOn="true" targetP="450.0" targetV="144.9" targetQ="-51.042" bus="B10" connectableBus="B10" p="-450.0" q="51.04215159113601">
                <iidm:minMaxReactiveLimits minQ="-147.0" maxQ="200.0"/>
            </iidm:generator>
        </iidm:voltageLevel>
    </iidm:substation>
    <iidm:substation id="S66">
        <iidm:voltageLevel id="VL11" nominalV="138.0" topologyKind="BUS_BREAKER">
            <iidm:busBreakerTopology>
                <iidm:bus id="B11" name="SOUTHBND" v="135.94226356447552" angle="-8.013829727776848"/>
            </iidm:busBreakerTopology>
            <iidm:load id="B11-L1" loadType="UNDEFINED" p0="70.0" q0="23.0" bus="B11" connectableBus="B11" p="70.0" q="23.0"/>
        </iidm:voltageLevel>
    </iidm:substation>
    <iidm:substation id="S69">
        <iidm:voltageLevel id="VL12" nominalV="138.0" topologyKind="BUS_BREAKER">
            <iidm:busBreakerTopology>
                <iidm:bus id="B12" name="TWINBRCH" v="136.62" angle="-8.530574933963504"/>
            </iidm:busBreakerTopology>
            <iidm:generator id="B12-G1" energySource="OTHER" minP="-10000.0" maxP="10000.0" voltageRegulatorOn="true" targetP="85.0" targetV="136.62" targetQ="91.274" bus="B12" connectableBus="B12" p="-85.0" q="-91.27355171094398">
                <iidm:regulatingTerminal id="B12-L1"/>
                <iidm:minMaxReactiveLimits minQ="-35.0" maxQ="120.0"/>
            </iidm:generator>
            <iidm:load id="B12-L1" loadType="UNDEFINED" p0="47.0" q0="10.0" bus="B12" connectableBus="B12" p="47.0" q="10.0"/>
        </iidm:voltageLevel>
    </iidm:substation>
    <iidm:substation id="S51">
        <iidm:voltageLevel id="VL13" nominalV="138.0" topologyKind="BUS_BREAKER">
            <iidm:busBreakerTopology>
                <iidm:bus id="B13" name="CONCORD" v="133.6257718652457" angle="-9.38874188000474"/>
            </iidm:busBreakerTopology>
            <iidm:load id="B13-L1" loadType="UNDEFINED" p0="34.0" q0="16.0" bus="B13" connectableBus="B13" p="34.0" q="16.0"/>
        </iidm:voltageLevel>
    </iidm:substation>
    <iidm:substation id="S52">
        <iidm:voltageLevel id="VL14" nominalV="138.0" topologyKind="BUS_BREAKER">
            <iidm:busBreakerTopology>
                <iidm:bus id="B14" name="GOSHENJT" v="135.73559878479287" angle="-9.246753155392156"/>
            </iidm:busBreakerTopology>
            <iidm:load id="B14-L1" loadType="UNDEFINED" p0="14.0" q0="1.0" bus="B14" connectableBus="B14" p="14.0" q="1.0"/>
        </iidm:voltageLevel>
    </iidm:substation>
    <iidm:substation id="S53">
        <iidm:voltageLevel id="VL15" nominalV="138.0" topologyKind="BUS_BREAKER">
            <iidm:busBreakerTopology>
                <iidm:bus id="B15" name="FTWAYNE" v="133.85999999999999" angle="-9.540475106192142"/>
            </iidm:busBreakerTopology>
            <iidm:generator id="B15-G1" energySource="OTHER" minP="-10000.0" maxP="10000.0" voltageRegulatorOn="true" targetP="0.0" targetV="133.85999999999999" targetQ="3.06" bus="B15" connectableBus="B15" p="-0.0" q="-3.060786771071058">
                <iidm:regulatingTerminal id="B15-L1"/>
                <iidm:minMaxReactiveLimits minQ="-10.0" maxQ="30.0"/>
            </iidm:generator>
            <iidm:load id="B15-L1" loadType="UNDEFINED" p0="90.0" q0="30.0" bus="B15" connectableBus="B15" p="90.0" q="30.0"/>
        </iidm:voltageLevel>
    </iidm:substation>
    <iidm:substation id="S54">
        <iidm:voltageLevel id="VL16" nominalV="138.0" topologyKind="BUS_BREAKER">
            <iidm:busBreakerTopology>
                <iidm:bus id="B16" name="N. E." v="135.77974698369778" angle="-8.832125480784438"/>
            </iidm:busBreakerTopology>
            <iidm:load id="B16-L1" loadType="UNDEFINED" p0="25.0" q0="10.0" bus="B16" connectableBus="B16" p="25.0" q="10.0"/>
        </iidm:voltageLevel>
    </iidm:substation>
    <iidm:substation id="S55">
        <iidm:voltageLevel id="VL17" nominalV="138.0" topologyKind="BUS_BREAKER">
            <iidm:busBreakerTopology>
                <iidm:bus id="B17" name="SORENSON" v="137.32818023733904" angle="-7.024300060268502"/>
            </iidm:busBreakerTopology>
            <iidm:load id="B17-L1" loadType="UNDEFINED" p0="11.0" q0="3.0" bus="B17" connectableBus="B17" p="11.0" q="3.0"/>
        </iidm:voltageLevel>
        <iidm:voltageLevel id="VL30" nominalV="138.0" topologyKind="BUS_BREAKER">
            <iidm:busBreakerTopology>
                <iidm:bus id="B30" name="SORENSON" v="136.00166813635812" angle="-1.989785653523879"/>
            </iidm:busBreakerTopology>
        </iidm:voltageLevel>
        <iidm:twoWindingsTransformer id="T-30-17-1" r="0.0" x="7.3890720000000005" g="0.0" b="0.0" ratedU1="138.0" ratedU2="138.0" bus1="B30" connectableBus1="B30" voltageLevelId1="VL30" bus2="B17" connectableBus2="B17" voltageLevelId2="VL17" p1="231.05678212805563" q1="93.37166461737372" p2="-231.05678212805566" q2="-70.50651820125641">
            <iidm:ratioTapChanger lowTapPosition="0" tapPosition="0" loadTapChangingCapabilities="false">
                <iidm:step r="0.0" x="0.0" g="8.506944444444443" b="8.506944444444443" rho="1.0416666666666667"/>
            </iidm:ratioTapChanger>
        </iidm:twoWindingsTransformer>
    </iidm:substation>
    <iidm:substation id="S56">
        <iidm:voltageLevel id="VL18" nominalV="138.0" topologyKind="BUS_BREAKER">
            <iidm:busBreakerTopology>
                <iidm:bus id="B18" name="MCKINLEY" v="134.274" angle="-9.237936480946171"/>
            </iidm:busBreakerTopology>
            <iidm:generator id="B18-G1" energySource="OTHER" minP="-10000.0" maxP="10000.0" voltageRegulatorOn="true" targetP="0.0" targetV="134.274" targetQ="25.532" bus="B18" connectableBus="B18" p="-0.0" q="-25.53302171534881">
                <iidm:regulatingTerminal id="B18-L1"/>
                <iidm:minMaxReactiveLimits minQ="-16.0" maxQ="50.0"/>
            </iidm:generator>
            <iidm:load id="B18-L1" loadType="UNDEFINED" p0="60.0" q0="34.0" bus="B18" connectableBus="B18" p="60.0" q="34.0"/>
        </iidm:voltageLevel>
    </iidm:substation>
    <iidm:substation id="S57">
        <iidm:voltageLevel id="VL19" nominalV="138.0" topologyKind="BUS_BREAKER">
            <iidm:busBreakerTopology>
                <iidm:bus id="B19" name="LINCOLN" v="132.952775147383" angle="-9.722520419909758"/>
            </iidm:busBreakerTopology>
            <iidm:generator id="B19-G1" energySource="OTHER" minP="-10000.0" maxP="10000.0" voltageRegulatorOn="true" targetP="0.0" targetV="132.756" targetQ="-8.0" bus="B19" connectableBus="B19" p="-0.0" q="8.0">
                <iidm:regulatingTerminal id="B19-L1"/>
                <iidm:minMaxReactiveLimits minQ="-8.0" maxQ="24.0"/>
            </iidm:generator>
            <iidm:load id="B19-L1" loadType="UNDEFINED" p0="45.0" q0="25.0" bus="B19" connectableBus="B19" p="45.0" q="25.0"/>
        </iidm:voltageLevel>
    </iidm:substation>
    <iidm:substation id="S40">
        <iidm:voltageLevel id="VL20" nominalV="138.0" topologyKind="BUS_BREAKER">
            <iidm:busBreakerTopology>
                <iidm:bus id="B20" name="ADAMS" v="132.21220740968826" angle="-8.842773412731406"/>
            </iidm:busBreakerTopology>
            <iidm:load id="B20-L1" loadType="UNDEFINED" p0="18.0" q0="3.0" bus="B20" connectableBus="B20" p="18.0" q="3.0"/>
        </iidm:voltageLevel>
    </iidm:substation>
    <iidm:substation id="S42">
        <iidm:voltageLevel id="VL21" nominalV="138.0" topologyKind="BUS_BREAKER">
            <iidm:busBreakerTopology>
                <iidm:bus id="B21" name="JAY" v="132.29007195622265" angle="-7.254906892635644"/>
            </iidm:busBreakerTopology>
            <iidm:load id="B21-L1" loadType="UNDEFINED" p0="14.0" q0="8.0" bus="B21" connectableBus="B21" p="14.0" q="8.0"/>
        </iidm:voltageLevel>
    </iidm:substation>
    <iidm:substation id="S44">
        <iidm:voltageLevel id="VL22" nominalV="138.0" topologyKind="BUS_BREAKER">
            <iidm:busBreakerTopology>
                <iidm:bus id="B22" name="RANDOLPH" v="133.81156005791962" angle="-4.700477478633092"/>
            </iidm:busBreakerTopology>
            <iidm:load id="B22-L1" loadType="UNDEFINED" p0="10.0" q0="5.0" bus="B22" connectableBus="B22" p="10.0" q="5.0"/>
        </iidm:voltageLevel>
    </iidm:substation>
    <iidm:substation id="S46">
        <iidm:voltageLevel id="VL23" nominalV="138.0" topologyKind="BUS_BREAKER">
            <iidm:busBreakerTopology>
                <iidm:bus id="B23" name="COLLCRNR" v="137.95252970942022" angle="0.22015751532486477"/>
            </iidm:busBreakerTopology>
            <iidm:load id="B23-L1" loadType="UNDEFINED" p0="7.0" q0="3.0" bus="B23" connectableBus="B23" p="7.0" q="3.0"/>
        </iidm:voltageLevel>
    </iidm:substation>
    <iidm:substation id="S34">
        <iidm:voltageLevel id="VL24" nominalV="138.0" topologyKind="BUS_BREAKER">
            <iidm:busBreakerTopology>
                <iidm:bus id="B24" name="TRENTON" v="136.896" angle="0.08772364868344308"/>
            </iidm:busBreakerTopology>
            <iidm:generator id="B24-G1" energySource="OTHER" minP="-10000.0" maxP="10000.0" voltageRegulatorOn="true" targetP="0.0" targetV="136.896" targetQ="-15.282" bus="B24" connectableBus="B24" p="-0.0" q="15.281697137716554">
                <iidm:regulatingTerminal id="B24-L1"/>
                <iidm:minMaxReactiveLimits minQ="-300.0" maxQ="300.0"/>
            </iidm:generator>
            <iidm:load id="B24-L1" loadType="UNDEFINED" p0="13.0" q0="0.0" bus="B24" connectableBus="B24" p="13.0" q="0.0"/>
        </iidm:voltageLevel>
    </iidm:substation>
    <iidm:substation id="S35">
        <iidm:voltageLevel id="VL25" nominalV="138.0" topologyKind="BUS_BREAKER">
            <iidm:busBreakerTopology>
                <iidm:bus id="B25" name="TANNRSCK" v="144.9" angle="7.154353653736599"/>
            </iidm:busBreakerTopology>
            <iidm:generator id="B25-G1" energySource="OTHER" minP="-10000.0" maxP="10000.0" voltageRegulatorOn="true" targetP="220.0" targetV="144.9" targetQ="49.798" bus="B25" connectableBus="B25" p="-220.0" q="-49.797806132648965">
                <iidm:minMaxReactiveLimits minQ="-47.0" maxQ="140.0"/>
            </iidm:generator>
        </iidm:voltageLevel>
        <iidm:voltageLevel id="VL26" nominalV="138.0" topologyKind="BUS_BREAKER">
            <iidm:busBreakerTopology>
                <iidm:bus id="B26" name="TANNRSCK" v="140.07" angle="8.934959676335094"/>
            </iidm:busBreakerTopology>
            <iidm:generator id="B26-G1" energySource="OTHER" minP="-10000.0" maxP="10000.0" voltageRegulatorOn="true" targetP="314.0" targetV="140.07" targetQ="9.905" bus="B26" connectableBus="B26" p="-314.0" q="-9.903382581819224">
                <iidm:minMaxReactiveLimits minQ="-1000.0" maxQ="1000.0"/>
            </iidm:generator>
        </iidm:voltageLevel>
        <iidm:twoWindingsTransformer id="T-26-25-1" r="0.0" x="7.274807999999999" g="0.0" b="0.0" ratedU1="138.0" ratedU2="138.0" bus1="B26" connectableBus1="B26" voltageLevelId1="VL26" bus2="B25" connectableBus2="B25" voltageLevelId2="VL25" p1="90.30172389153005" q1="21.58500961388776" p2="-90.30172389153003" q2="-18.63925322060858">
            <iidm:ratioTapChanger lowTapPosition="0" tapPosition="0" loadTapChangingCapabilities="false">
                <iidm:step r="0.0" x="0.0" g="8.506944444444443" b="8.506944444444443" rho="1.0416666666666667"/>
            </iidm:ratioTapChanger>
        </iidm:twoWindingsTransformer>
    </iidm:substation>
    <iidm:substation id="S36">
        <iidm:voltageLevel id="VL27" nominalV="138.0" topologyKind="BUS_BREAKER">
            <iidm:busBreakerTopology>
                <iidm:bus id="B27" name="MADISON" v="133.584" angle="-5.41741506110289"/>
            </iidm:busBreakerTopology>
            <iidm:generator id="B27-G1" energySource="OTHER" minP="-10000.0" maxP="10000.0" voltageRegulatorOn="true" targetP="0.0" targetV="133.584" targetQ="2.831" bus="B27" connectableBus="B27" p="-0.0" q="-2.831268154540675">
                <iidm:regulatingTerminal id="B27-L1"/>
                <iidm:minMaxReactiveLimits minQ="-300.0" maxQ="300.0"/>
            </iidm:generator>
            <iidm:load id="B27-L1" loadType="UNDEFINED" p0="71.0" q0="13.0" bus="B27" connectableBus="B27" p="71.0" q="13.0"/>
        </iidm:voltageLevel>
    </iidm:substation>
    <iidm:substation id="S37">
        <iidm:voltageLevel id="VL28" nominalV="138.0" topologyKind="BUS_BREAKER">
            <iidm:busBreakerTopology>
                <iidm:bus id="B28" name="MULLIN" v="132.69640799290025" angle="-7.1420099358432"/>
            </iidm:busBreakerTopology>
            <iidm:load id="B28-L1" loadType="UNDEFINED" p0="17.0" q0="7.0" bus="B28" connectableBus="B28" p="17.0" q="7.0"/>
        </iidm:voltageLevel>
    </iidm:substation>
    <iidm:substation id="S38">
        <iidm:voltageLevel id="VL29" nominalV="138.0" topologyKind="BUS_BREAKER">
            <iidm:busBreakerTopology>
                <iidm:bus id="B29" name="GRANT" v="132.92382078818898" angle="-8.134377302008216"/>
            </iidm:busBreakerTopology>
            <iidm:load id="B29-L1" loadType="UNDEFINED" p0="24.0" q0="4.0" bus="B29" connectableBus="B29" p="24.0" q="4.0"/>
        </iidm:voltageLevel>
    </iidm:substation>
    <iidm:substation id="S90">
        <iidm:voltageLevel id="VL31" nominalV="138.0" topologyKind="BUS_BREAKER">
            <iidm:busBreakerTopology>
                <iidm:bus id="B31" name="DEERCRK" v="133.446" angle="-8.017512448434621"/>
            </iidm:busBreakerTopology>
            <iidm:generator id="B31-G1" energySource="OTHER" minP="-10000.0" maxP="10000.0" voltageRegulatorOn="true" targetP="7.0" targetV="133.446" targetQ="31.976" bus="B31" connectableBus="B31" p="-7.0" q="-31.97529424184267">
                <iidm:regulatingTerminal id="B31-L1"/>
                <iidm:minMaxReactiveLimits minQ="-300.0" maxQ="300.0"/>
            </iidm:generator>
            <iidm:load id="B31-L1" loadType="UNDEFINED" p0="43.0" q0="27.0" bus="B31" connectableBus="B31" p="43.0" q="27.0"/>
        </iidm:voltageLevel>
    </iidm:substation>
    <iidm:substation id="S91">
        <iidm:voltageLevel id="VL32" nominalV="138.0" topologyKind="BUS_BREAKER">
            <iidm:busBreakerTopology>
                <iidm:bus id="B32" name="DELAWARE" v="132.97525040553083" angle="-5.970042002743195"/>
            </iidm:busBreakerTopology>
            <iidm:generator id="B32-G1" energySource="OTHER" minP="-10000.0" maxP="10000.0" voltageRegulatorOn="true" targetP="0.0" targetV="132.894" targetQ="-14.0" bus="B32" connectableBus="B32" p="-0.0" q="14.000000000000002">
                <iidm:regulatingTerminal id="B32-L1"/>
                <iidm:minMaxReactiveLimits minQ="-14.0" maxQ="42.0"/>
            </iidm:generator>
            <iidm:load id="B32-L1" loadType="UNDEFINED" p0="59.0" q0="23.0" bus="B32" connectableBus="B32" p="59.0" q="23.0"/>
        </iidm:voltageLevel>
    </iidm:substation>
    <iidm:substation id="S92">
        <iidm:voltageLevel id="VL33" nominalV="138.0" topologyKind="BUS_BREAKER">
            <iidm:busBreakerTopology>
                <iidm:bus id="B33" name="HAVILAND" v="134.0753350112174" angle="-10.165323676752088"/>
            </iidm:busBreakerTopology>
            <iidm:load id="B33-L1" loadType="UNDEFINED" p0="23.0" q0="9.0" bus="B33" connectableBus="B33" p="23.0" q="9.0"/>
        </iidm:voltageLevel>
    </iidm:substation>
    <iidm:substation id="S93">
        <iidm:voltageLevel id="VL34" nominalV="138.0" topologyKind="BUS_BREAKER">
            <iidm:busBreakerTopology>
                <iidm:bus id="B34" name="ROCKHILL" v="136.04892383418098" angle="-9.523190924862451"/>
            </iidm:busBreakerTopology>
            <iidm:generator id="B34-G1" energySource="OTHER" minP="-10000.0" maxP="10000.0" voltageRegulatorOn="true" targetP="0.0" targetV="135.792" targetQ="-8.0" bus="B34" connectableBus="B34" p="-0.0" q="8.0">
                <iidm:regulatingTerminal id="B34-L1"/>
                <iidm:minMaxReactiveLimits minQ="-8.0" maxQ="24.0"/>
            </iidm:generator>
            <iidm:load id="B34-L1" loadType="UNDEFINED" p0="59.0" q0="26.0" bus="B34" connectableBus="B34" p="59.0" q="26.0"/>
            <iidm:shunt id="B34-SH 1" currentSectionCount="1" voltageRegulatorOn="false" bus="B34" connectableBus="B34" q="-13.606927928488913" bPerSection="7.351396765385423E-4" gPerSection="0.0" maximumSectionCount="1"/>
        </iidm:voltageLevel>
    </iidm:substation>
    <iidm:substation id="S86">
        <iidm:voltageLevel id="VL35" nominalV="138.0" topologyKind="BUS_BREAKER">
            <iidm:busBreakerTopology>
                <iidm:bus id="B35" name="WESTLIMA" v="135.33364820189" angle="-9.95038731781"/>
            </iidm:busBreakerTopology>
            <iidm:load id="B35-L1" loadType="UNDEFINED" p0="33.0" q0="9.0" bus="B35" connectableBus="B35" p="33.0" q="9.0"/>
        </iidm:voltageLevel>
    </iidm:substation>
    <iidm:substation id="S87">
        <iidm:voltageLevel id="VL36" nominalV="138.0" topologyKind="BUS_BREAKER">
            <iidm:busBreakerTopology>
                <iidm:bus id="B36" name="STERLING" v="135.24" angle="-9.945949457230165"/>
            </iidm:busBreakerTopology>
            <iidm:generator id="B36-G1" energySource="OTHER" minP="-10000.0" maxP="10000.0" voltageRegulatorOn="true" targetP="0.0" targetV="135.24" targetQ="-1.252" bus="B36" connectableBus="B36" p="-0.0" q="1.2536699043364052">
                <iidm:regulatingTerminal id="B36-L1"/>
                <iidm:minMaxReactiveLimits minQ="-8.0" maxQ="24.0"/>
            </iidm:generator>
            <iidm:load id="B36-L1" loadType="UNDEFINED" p0="31.0" q0="17.0" bus="B36" connectableBus="B36" p="31.0" q="17.0"/>
        </iidm:voltageLevel>
    </iidm:substation>
    <iidm:substation id="S88">
        <iidm:voltageLevel id="VL37" nominalV="138.0" topologyKind="BUS_BREAKER">
            <iidm:busBreakerTopology>
                <iidm:bus id="B37" name="EASTLIMA" v="136.893493997498" angle="-9.059434411196278"/>
            </iidm:busBreakerTopology>
            <iidm:shunt id="B37-SH 1" currentSectionCount="1" voltageRegulatorOn="false" bus="B37" connectableBus="B37" q="24.60069930009849" bPerSection="-0.001312749422390254" gPerSection="0.0" maximumSectionCount="1"/>
        </iidm:voltageLevel>
        <iidm:voltageLevel id="VL38" nominalV="138.0" topologyKind="BUS_BREAKER">
            <iidm:busBreakerTopology>
                <iidm:bus id="B38" name="EASTLIMA" v="132.75391019508191" angle="-3.9226432976316734"/>
            </iidm:busBreakerTopology>
        </iidm:voltageLevel>
        <iidm:twoWindingsTransformer id="T-38-37-1" r="0.0" x="7.1415" g="0.0" b="0.0" ratedU1="138.0" ratedU2="138.0" bus1="B38" connectableBus1="B38" voltageLevelId1="VL38" bus2="B37" connectableBus2="B37" voltageLevelId2="VL37" p1="243.6780433896647" q1="112.11286922101493" p2="-243.67804338966468" q2="-86.6247106421081">
            <iidm:ratioTapChanger lowTapPosition="0" tapPosition="0" loadTapChangingCapabilities="false">
                <iidm:step r="0.0" x="0.0" g="14.387028510966848" b="14.387028510966848" rho="1.06951871657754"/>
            </iidm:ratioTapChanger>
        </iidm:twoWindingsTransformer>
    </iidm:substation>
    <iidm:substation id="S89">
        <iidm:voltageLevel id="VL39" nominalV="138.0" topologyKind="BUS_BREAKER">
            <iidm:busBreakerTopology>
                <iidm:bus id="B39" name="NWLIBRTY" v="133.9224372825905" angle="-12.431701233242011"/>
            </iidm:busBreakerTopology>
            <iidm:load id="B39-L1" loadType="UNDEFINED" p0="27.0" q0="11.0" bus="B39" connectableBus="B39" p="27.0" q="11.0"/>
        </iidm:voltageLevel>
    </iidm:substation>
    <iidm:substation id="S75">
        <iidm:voltageLevel id="VL40" nominalV="138.0" topologyKind="BUS_BREAKER">
            <iidm:busBreakerTopology>
                <iidm:bus id="B40" name="WEST END" v="133.85999999999999" angle="-13.505415987664046"/>
            </iidm:busBreakerTopology>
            <iidm:generator id="B40-G1" energySource="OTHER" minP="-10000.0" maxP="10000.0" voltageRegulatorOn="true" targetP="0.0" targetV="133.85999999999999" targetQ="26.886" bus="B40" connectableBus="B40" p="-0.0" q="-26.884889470575658">
                <iidm:regulatingTerminal id="B40-L1"/>
                <iidm:minMaxReactiveLimits minQ="-300.0" maxQ="300.0"/>
            </iidm:generator>
            <iidm:load id="B40-L1" loadType="UNDEFINED" p0="66.0" q0="23.0" bus="B40" connectableBus="B40" p="66.0" q="23.0"/>
        </iidm:voltageLevel>
    </iidm:substation>
    <iidm:substation id="S76">
        <iidm:voltageLevel id="VL41" nominalV="138.0" topologyKind="BUS_BREAKER">
            <iidm:busBreakerTopology>
                <iidm:bus id="B41" name="S.TIFFIN" v="133.42297081011066" angle="-13.951398549836462"/>
            </iidm:busBreakerTopology>
            <iidm:load id="B41-L1" loadType="UNDEFINED" p0="37.0" q0="10.0" bus="B41" connectableBus="B41" p="37.0" q="10.0"/>
        </iidm:voltageLevel>
    </iidm:substation>
    <iidm:substation id="S77">
        <iidm:voltageLevel id="VL42" nominalV="138.0" topologyKind="BUS_BREAKER">
            <iidm:busBreakerTopology>
                <iidm:bus id="B42" name="HOWARD" v="135.93" angle="-12.355608159212258"/>
            </iidm:busBreakerTopology>
            <iidm:generator id="B42-G1" energySource="OTHER" minP="-10000.0" maxP="10000.0" voltageRegulatorOn="true" targetP="0.0" targetV="135.93" targetQ="41.004" bus="B42" connectableBus="B42" p="-0.0" q="-41.005580729178604">
                <iidm:regulatingTerminal id="B42-L1"/>
                <iidm:minMaxReactiveLimits minQ="-300.0" maxQ="300.0"/>
            </iidm:generator>
            <iidm:load id="B42-L1" loadType="UNDEFINED" p0="96.0" q0="23.0" bus="B42" connectableBus="B42" p="96.0" q="23.0"/>
        </iidm:voltageLevel>
    </iidm:substation>
    <iidm:substation id="S78">
        <iidm:voltageLevel id="VL43" nominalV="138.0" topologyKind="BUS_BREAKER">
            <iidm:busBreakerTopology>
                <iidm:bus id="B43" name="S.KENTON" v="135.03036236530457" angle="-9.56896415489138"/>
            </iidm:busBreakerTopology>
            <iidm:load id="B43-L1" loadType="UNDEFINED" p0="18.0" q0="7.0" bus="B43" connectableBus="B43" p="18.0" q="7.0"/>
        </iidm:voltageLevel>
    </iidm:substation>
    <iidm:substation id="S79">
        <iidm:voltageLevel id="VL44" nominalV="138.0" topologyKind="BUS_BREAKER">
            <iidm:busBreakerTopology>
                <iidm:bus id="B44" name="WMVERNON" v="135.93105276468168" angle="-7.082869004150218"/>
            </iidm:busBreakerTopology>
            <iidm:load id="B44-L1" loadType="UNDEFINED" p0="16.0" q0="8.0" bus="B44" connectableBus="B44" p="16.0" q="8.0"/>
            <iidm:shunt id="B44-SH 1" currentSectionCount="1" voltageRegulatorOn="false" bus="B44" connectableBus="B44" q="-9.70240028655465" bPerSection="5.250997689561017E-4" gPerSection="0.0" maximumSectionCount="1"/>
        </iidm:voltageLevel>
    </iidm:substation>
    <iidm:substation id="S80">
        <iidm:voltageLevel id="VL45" nominalV="138.0" topologyKind="BUS_BREAKER">
            <iidm:busBreakerTopology>
                <iidm:bus id="B45" name="N.NEWARK" v="136.1581956038817" angle="-5.251968759728397"/>
            </iidm:busBreakerTopology>
            <iidm:load id="B45-L1" loadType="UNDEFINED" p0="53.0" q0="22.0" bus="B45" connectableBus="B45" p="53.0" q="22.0"/>
            <iidm:shunt id="B45-SH 1" currentSectionCount="1" voltageRegulatorOn="false" bus="B45" connectableBus="B45" q="-9.73485309289273" bPerSection="5.250997689561017E-4" gPerSection="0.0" maximumSectionCount="1"/>
        </iidm:voltageLevel>
    </iidm:substation>
    <iidm:substation id="S71">
        <iidm:voltageLevel id="VL46" nominalV="138.0" topologyKind="BUS_BREAKER">
            <iidm:busBreakerTopology>
                <iidm:bus id="B46" name="W.LANCST" v="138.69" angle="-2.4460320530589628"/>
            </iidm:busBreakerTopology>
            <iidm:generator id="B46-G1" energySource="OTHER" minP="-10000.0" maxP="10000.0" voltageRegulatorOn="true" targetP="19.0" targetV="138.69" targetQ="-5.231" bus="B46" connectableBus="B46" p="-19.0" q="5.231471908622657">
                <iidm:regulatingTerminal id="B46-L1"/>
                <iidm:minMaxReactiveLimits minQ="-100.0" maxQ="100.0"/>
            </iidm:generator>
            <iidm:load id="B46-L1" loadType="UNDEFINED" p0="28.0" q0="10.0" bus="B46" connectableBus="B46" p="28.0" q="10.0"/>
            <iidm:shunt id="B46-SH 1" currentSectionCount="1" voltageRegulatorOn="false" bus="B46" connectableBus="B46" q="-10.100249999999997" bPerSection="5.250997689561017E-4" gPerSection="0.0" maximumSectionCount="1"/>
        </iidm:voltageLevel>
    </iidm:substation>
    <iidm:substation id="S72">
        <iidm:voltageLevel id="VL47" nominalV="138.0" topologyKind="BUS_BREAKER">
            <iidm:busBreakerTopology>
                <iidm:bus id="B47" name="CROOKSVL" v="140.35359253071152" angle="-0.22374336397950048"/>
            </iidm:busBreakerTopology>
            <iidm:load id="B47-L1" loadType="UNDEFINED" p0="34.0" q0="0.0" bus="B47" connectableBus="B47" p="34.0" q="0.0"/>
        </iidm:voltageLevel>
    </iidm:substation>
    <iidm:substation id="S73">
        <iidm:voltageLevel id="VL48" nominalV="138.0" topologyKind="BUS_BREAKER">
            <iidm:busBreakerTopology>
                <iidm:bus id="B48" name="ZANESVLL" v="140.84740110533465" angle="-1.0031418490592352"/>
            </iidm:busBreakerTopology>
            <iidm:load id="B48-L1" loadType="UNDEFINED" p0="20.0" q0="11.0" bus="B48" connectableBus="B48" p="20.0" q="11.0"/>
            <iidm:shunt id="B48-SH 1" currentSectionCount="1" voltageRegulatorOn="false" bus="B48" connectableBus="B48" q="-15.625386261914795" bPerSection="7.876496534341525E-4" gPerSection="0.0" maximumSectionCount="1"/>
        </iidm:voltageLevel>
    </iidm:substation>
    <iidm:substation id="S74">
        <iidm:voltageLevel id="VL49" nominalV="138.0" topologyKind="BUS_BREAKER">
            <iidm:busBreakerTopology>
                <iidm:bus id="B49" name="PHILO" v="141.45" angle="0.0"/>
            </iidm:busBreakerTopology>
            <iidm:generator id="B49-G1" energySource="OTHER" minP="-10000.0" maxP="10000.0" voltageRegulatorOn="true" targetP="204.0" targetV="141.45" targetQ="115.647" bus="B49" connectableBus="B49" p="-204.0" q="-115.62044028910586">
                <iidm:regulatingTerminal id="B49-L1"/>
                <iidm:minMaxReactiveLimits minQ="-85.0" maxQ="210.0"/>
            </iidm:generator>
            <iidm:load id="B49-L1" loadType="UNDEFINED" p0="87.0" q0="30.0" bus="B49" connectableBus="B49" p="87.0" q="30.0"/>
        </iidm:voltageLevel>
    </iidm:substation>
    <iidm:substation id="S103">
        <iidm:voltageLevel id="VL50" nominalV="138.0" topologyKind="BUS_BREAKER">
            <iidm:busBreakerTopology>
                <iidm:bus id="B50" name="WCAMBRDG" v="138.149332863005" angle="-2.0391891745311725"/>
            </iidm:busBreakerTopology>
            <iidm:load id="B50-L1" loadType="UNDEFINED" p0="17.0" q0="4.0" bus="B50" connectableBus="B50" p="17.0" q="4.0"/>
        </iidm:voltageLevel>
    </iidm:substation>
    <iidm:substation id="S104">
        <iidm:voltageLevel id="VL51" nominalV="138.0" topologyKind="BUS_BREAKER">
            <iidm:busBreakerTopology>
                <iidm:bus id="B51" name="NEWCMRST" v="133.4288258223038" angle="-4.6584070104858135"/>
            </iidm:busBreakerTopology>
            <iidm:load id="B51-L1" loadType="UNDEFINED" p0="17.0" q0="8.0" bus="B51" connectableBus="B51" p="17.0" q="8.0"/>
        </iidm:voltageLevel>
    </iidm:substation>
    <iidm:substation id="S105">
        <iidm:voltageLevel id="VL52" nominalV="138.0" topologyKind="BUS_BREAKER">
            <iidm:busBreakerTopology>
                <iidm:bus id="B52" name="SCOSHOCT" v="132.0407136157215" angle="-5.61188171199519"/>
            </iidm:busBreakerTopology>
            <iidm:load id="B52-L1" loadType="UNDEFINED" p0="18.0" q0="5.0" bus="B52" connectableBus="B52" p="18.0" q="5.0"/>
        </iidm:voltageLevel>
    </iidm:substation>
    <iidm:substation id="S106">
        <iidm:voltageLevel id="VL53" nominalV="138.0" topologyKind="BUS_BREAKER">
            <iidm:busBreakerTopology>
                <iidm:bus id="B53" name="WOOSTER" v="130.54555496547002" angle="-6.586974314684207"/>
            </iidm:busBreakerTopology>
            <iidm:load id="B53-L1" loadType="UNDEFINED" p0="23.0" q0="11.0" bus="B53" connectableBus="B53" p="23.0" q="11.0"/>
        </iidm:voltageLevel>
    </iidm:substation>
    <iidm:substation id="S107">
        <iidm:voltageLevel id="VL54" nominalV="138.0" topologyKind="BUS_BREAKER">
            <iidm:busBreakerTopology>
                <iidm:bus id="B54" name="TORREY" v="131.79" angle="-5.675356905637153"/>
            </iidm:busBreakerTopology>
            <iidm:generator id="B54-G1" energySource="OTHER" minP="-10000.0" maxP="10000.0" voltageRegulatorOn="true" targetP="48.0" targetV="131.79" targetQ="3.902" bus="B54" connectableBus="B54" p="-48.0" q="-3.903181767393022">
                <iidm:regulatingTerminal id="B54-L1"/>
                <iidm:minMaxReactiveLimits minQ="-300.0" maxQ="300.0"/>
            </iidm:generator>
            <iidm:load id="B54-L1" loadType="UNDEFINED" p0="113.0" q0="32.0" bus="B54" connectableBus="B54" p="113.0" q="32.0"/>
        </iidm:voltageLevel>
    </iidm:substation>
    <iidm:substation id="S108">
        <iidm:voltageLevel id="VL55" nominalV="138.0" topologyKind="BUS_BREAKER">
            <iidm:busBreakerTopology>
                <iidm:bus id="B55" name="WAGENHLS" v="131.376" angle="-5.9653286073166525"/>
            </iidm:busBreakerTopology>
            <iidm:generator id="B55-G1" energySource="OTHER" minP="-10000.0" maxP="10000.0" voltageRegulatorOn="true" targetP="0.0" targetV="131.376" targetQ="4.664" bus="B55" connectableBus="B55" p="-0.0" q="-4.664192174109402">
                <iidm:regulatingTerminal id="B55-L1"/>
                <iidm:minMaxReactiveLimits minQ="-8.0" maxQ="23.0"/>
            </iidm:generator>
            <iidm:load id="B55-L1" loadType="UNDEFINED" p0="63.0" q0="22.0" bus="B55" connectableBus="B55" p="63.0" q="22.0"/>
        </iidm:voltageLevel>
    </iidm:substation>
    <iidm:substation id="S109">
        <iidm:voltageLevel id="VL56" nominalV="138.0" topologyKind="BUS_BREAKER">
            <iidm:busBreakerTopology>
                <iidm:bus id="B56" name="SUNNYSDE" v="131.652" angle="-5.7785983051399405"/>
            </iidm:busBreakerTopology>
            <iidm:generator id="B56-G1" energySource="OTHER" minP="-10000.0" maxP="10000.0" voltageRegulatorOn="true" targetP="0.0" targetV="131.652" targetQ="-2.286" bus="B56" connectableBus="B56" p="-0.0" q="2.285534370790124">
                <iidm:regulatingTerminal id="B56-L1"/>
                <iidm:minMaxReactiveLimits minQ="-8.0" maxQ="15.0"/>
            </iidm:generator>
            <iidm:load id="B56-L1" loadType="UNDEFINED" p0="84.0" q0="18.0" bus="B56" connectableBus="B56" p="84.0" q="18.0"/>
        </iidm:voltageLevel>
    </iidm:substation>
    <iidm:substation id="S101">
        <iidm:voltageLevel id="VL57" nominalV="138.0" topologyKind="BUS_BREAKER">
            <iidm:busBreakerTopology>
                <iidm:bus id="B57" name="WNWPHIL1" v="133.94029919065673" angle="-4.573625412228241"/>
            </iidm:busBreakerTopology>
            <iidm:load id="B57-L1" loadType="UNDEFINED" p0="12.0" q0="3.0" bus="B57" connectableBus="B57" p="12.0" q="3.0"/>
        </iidm:voltageLevel>
    </iidm:substation>
    <iidm:substation id="S102">
        <iidm:voltageLevel id="VL58" nominalV="138.0" topologyKind="BUS_BREAKER">
            <iidm:busBreakerTopology>
                <iidm:bus id="B58" name="WNWPHIL2" v="132.34723626522205" angle="-5.430478458948516"/>
            </iidm:busBreakerTopology>
            <iidm:load id="B58-L1" loadType="UNDEFINED" p0="12.0" q0="3.0" bus="B58" connectableBus="B58" p="12.0" q="3.0"/>
        </iidm:voltageLevel>
    </iidm:substation>
    <iidm:substation id="S98">
        <iidm:voltageLevel id="VL59" nominalV="138.0" topologyKind="BUS_BREAKER">
            <iidm:busBreakerTopology>
                <iidm:bus id="B59" name="TIDD" v="135.93" angle="-1.5765150399731847"/>
            </iidm:busBreakerTopology>
            <iidm:generator id="B59-G1" energySource="OTHER" minP="-10000.0" maxP="10000.0" voltageRegulatorOn="true" targetP="155.0" targetV="135.93" targetQ="76.834" bus="B59" connectableBus="B59" p="-155.0" q="-76.83286750118059">
                <iidm:regulatingTerminal id="B59-L1"/>
                <iidm:minMaxReactiveLimits minQ="-60.0" maxQ="180.0"/>
            </iidm:generator>
            <iidm:load id="B59-L1" loadType="UNDEFINED" p0="277.0" q0="113.0" bus="B59" connectableBus="B59" p="277.0" q="113.0"/>
        </iidm:voltageLevel>
        <iidm:voltageLevel id="VL63" nominalV="138.0" topologyKind="BUS_BREAKER">
            <iidm:busBreakerTopology>
                <iidm:bus id="B63" name="TIDD" v="133.68589141509497" angle="1.801805007542658"/>
            </iidm:busBreakerTopology>
        </iidm:voltageLevel>
        <iidm:twoWindingsTransformer id="T-63-59-1" r="0.0" x="7.350984" g="0.0" b="0.0" ratedU1="138.0" ratedU2="138.0" bus1="B63" connectableBus1="B63" voltageLevelId1="VL63" bus2="B59" connectableBus2="B59" voltageLevelId2="VL59" p1="151.7436987684627" q1="67.48484204403543" p2="-151.7436987684627" q2="-57.03002041900894">
            <iidm:ratioTapChanger lowTapPosition="0" tapPosition="0" loadTapChangingCapabilities="false">
                <iidm:step r="0.0" x="0.0" g="8.506944444444443" b="8.506944444444443" rho="1.0416666666666667"/>
            </iidm:ratioTapChanger>
        </iidm:twoWindingsTransformer>
    </iidm:substation>
    <iidm:substation id="S95">
        <iidm:voltageLevel id="VL60" nominalV="138.0" topologyKind="BUS_BREAKER">
            <iidm:busBreakerTopology>
                <iidm:bus id="B60" name="SWKAMMER" v="137.05556728456182" angle="2.2046113072861178"/>
            </iidm:busBreakerTopology>
            <iidm:load id="B60-L1" loadType="UNDEFINED" p0="78.0" q0="3.0" bus="B60" connectableBus="B60" p="78.0" q="3.0"/>
        </iidm:voltageLevel>
    </iidm:substation>
    <iidm:substation id="S96">
        <iidm:voltageLevel id="VL61" nominalV="138.0" topologyKind="BUS_BREAKER">
            <iidm:busBreakerTopology>
                <iidm:bus id="B61" name="W.KAMMER" v="137.31" angle="3.095903872966443"/>
            </iidm:busBreakerTopology>
            <iidm:generator id="B61-G1" energySource="OTHER" minP="-10000.0" maxP="10000.0" voltageRegulatorOn="true" targetP="160.0" targetV="137.31" targetQ="-40.394" bus="B61" connectableBus="B61" p="-160.0" q="40.39431331524243">
                <iidm:minMaxReactiveLimits minQ="-100.0" maxQ="300.0"/>
            </iidm:generator>
        </iidm:voltageLevel>
        <iidm:voltageLevel id="VL64" nominalV="138.0" topologyKind="BUS_BREAKER">
            <iidm:busBreakerTopology>
                <iidm:bus id="B64" name="KAMMER" v="135.75607246629184" angle="3.567416643084441"/>
            </iidm:busBreakerTopology>
        </iidm:voltageLevel>
        <iidm:twoWindingsTransformer id="T-64-61-1" r="0.0" x="5.103792" g="0.0" b="0.0" ratedU1="138.0" ratedU2="138.0" bus1="B64" connectableBus1="B64" voltageLevelId1="VL64" bus2="B61" connectableBus2="B61" voltageLevelId2="VL61" p1="30.513930992576118" q1="13.990116919887813" p2="-30.51393099257612" q2="-13.687353963035106">
            <iidm:ratioTapChanger lowTapPosition="0" tapPosition="0" loadTapChangingCapabilities="false">
                <iidm:step r="0.0" x="0.0" g="3.0688757762374674" b="3.0688757762374674" rho="1.015228426395939"/>
            </iidm:ratioTapChanger>
        </iidm:twoWindingsTransformer>
    </iidm:substation>
    <iidm:substation id="S97">
        <iidm:voltageLevel id="VL62" nominalV="138.0" topologyKind="BUS_BREAKER">
            <iidm:busBreakerTopology>
                <iidm:bus id="B62" name="NATRIUM" v="137.724" angle="2.4794272009979683"/>
            </iidm:busBreakerTopology>
            <iidm:generator id="B62-G1" energySource="OTHER" minP="-10000.0" maxP="10000.0" voltageRegulatorOn="true" targetP="0.0" targetV="137.724" targetQ="1.259" bus="B62" connectableBus="B62" p="-0.0" q="-1.2589874377470398">
                <iidm:regulatingTerminal id="B62-L1"/>
                <iidm:minMaxReactiveLimits minQ="-20.0" maxQ="20.0"/>
            </iidm:generator>
            <iidm:load id="B62-L1" loadType="UNDEFINED" p0="77.0" q0="14.0" bus="B62" connectableBus="B62" p="77.0" q="14.0"/>
        </iidm:voltageLevel>
    </iidm:substation>
    <iidm:substation id="S99">
        <iidm:voltageLevel id="VL65" nominalV="138.0" topologyKind="BUS_BREAKER">
            <iidm:busBreakerTopology>
                <iidm:bus id="B65" name="MUSKNGUM" v="138.69" angle="6.692248811217917"/>
            </iidm:busBreakerTopology>
            <iidm:generator id="B65-G1" energySource="OTHER" minP="-10000.0" maxP="10000.0" voltageRegulatorOn="true" targetP="391.0" targetV="138.69" targetQ="80.812" bus="B65" connectableBus="B65" p="-391.0" q="-80.80429133978458">
                <iidm:minMaxReactiveLimits minQ="-67.0" maxQ="200.0"/>
            </iidm:generator>
        </iidm:voltageLevel>
        <iidm:voltageLevel id="VL66" nominalV="138.0" topologyKind="BUS_BREAKER">
            <iidm:busBreakerTopology>
                <iidm:bus id="B66" name="MUSKNGUM" v="144.9" angle="6.5339542481112485"/>
            </iidm:busBreakerTopology>
            <iidm:generator id="B66-G1" energySource="OTHER" minP="-10000.0" maxP="10000.0" voltageRegulatorOn="true" targetP="392.0" targetV="144.9" targetQ="-1.951" bus="B66" connectableBus="B66" p="-392.0" q="1.9485549815738314">
                <iidm:regulatingTerminal id="B66-L1"/>
                <iidm:minMaxReactiveLimits minQ="-67.0" maxQ="200.0"/>
            </iidm:generator>
            <iidm:load id="B66-L1" loadType="UNDEFINED" p0="39.0" q0="18.0" bus="B66" connectableBus="B66" p="39.0" q="18.0"/>
        </iidm:voltageLevel>
        <iidm:twoWindingsTransformer id="T-65-66-1" r="0.0" x="7.046279999999999" g="0.0" b="0.0" ratedU1="138.0" ratedU2="138.0" bus1="B65" connectableBus1="B65" voltageLevelId1="VL65" bus2="B66" connectableBus2="B66" voltageLevelId2="VL66" p1="8.42722985409002" q1="72.24936838037607" p2="-8.42722985409002" q2="-70.55491464095468">
            <iidm:ratioTapChanger lowTapPosition="0" tapPosition="0" loadTapChangingCapabilities="false">
                <iidm:step r="0.0" x="0.0" g="14.387028510966848" b="14.387028510966848" rho="1.06951871657754"/>
            </iidm:ratioTapChanger>
        </iidm:twoWindingsTransformer>
    </iidm:substation>
    <iidm:substation id="S100">
        <iidm:voltageLevel id="VL67" nominalV="138.0" topologyKind="BUS_BREAKER">
            <iidm:busBreakerTopology>
                <iidm:bus id="B67" name="SUMMERFL" v="140.71605298683968" angle="3.8939331384099556"/>
            </iidm:busBreakerTopology>
            <iidm:load id="B67-L1" loadType="UNDEFINED" p0="28.0" q0="7.0" bus="B67" connectableBus="B67" p="28.0" q="7.0"/>
        </iidm:voltageLevel>
    </iidm:substation>
    <iidm:substation id="S94">
        <iidm:voltageLevel id="VL68" nominalV="138.0" topologyKind="BUS_BREAKER">
            <iidm:busBreakerTopology>
                <iidm:bus id="B68" name="SPORN" v="138.44840382833303" angle="6.570600814979035"/>
            </iidm:busBreakerTopology>
        </iidm:voltageLevel>
        <iidm:voltageLevel id="VL69" nominalV="138.0" topologyKind="BUS_BREAKER">
            <iidm:busBreakerTopology>
                <iidm:bus id="B69" name="SPORN" v="142.82999999999998" angle="8.96914517278614"/>
            </iidm:busBreakerTopology>
            <iidm:generator id="B69-G1" energySource="OTHER" minP="-10000.0" maxP="10000.0" voltageRegulatorOn="true" targetP="513.388" targetV="142.82999999999998" targetQ="-82.378" bus="B69" connectableBus="B69" p="-513.388" q="82.38094946145982">
                <iidm:minMaxReactiveLimits minQ="-300.0" maxQ="300.0"/>
            </iidm:generator>
        </iidm:voltageLevel>
        <iidm:twoWindingsTransformer id="T-68-69-1" r="0.0" x="7.046279999999999" g="0.0" b="0.0" ratedU1="138.0" ratedU2="138.0" bus1="B68" connectableBus1="B68" voltageLevelId1="VL68" bus2="B69" connectableBus2="B69" voltageLevelId2="VL69" p1="-125.61287287511733" q1="112.81132307288082" p2="125.61287287511733" q2="-103.65063528988748">
            <iidm:ratioTapChanger lowTapPosition="0" tapPosition="0" loadTapChangingCapabilities="false">
                <iidm:step r="0.0" x="0.0" g="14.387028510966848" b="14.387028510966848" rho="1.06951871657754"/>
            </iidm:ratioTapChanger>
        </iidm:twoWindingsTransformer>
    </iidm:substation>
    <iidm:substation id="S10">
        <iidm:voltageLevel id="VL70" nominalV="138.0" topologyKind="BUS_BREAKER">
            <iidm:busBreakerTopology>
                <iidm:bus id="B70" name="PORTSMTH" v="135.792" angle="1.5894766541966163"/>
            </iidm:busBreakerTopology>
            <iidm:generator id="B70-G1" energySource="OTHER" minP="-10000.0" maxP="10000.0" voltageRegulatorOn="true" targetP="0.0" targetV="135.792" targetQ="9.664" bus="B70" connectableBus="B70" p="-0.0" q="-9.662528982179325">
                <iidm:regulatingTerminal id="B70-L1"/>
                <iidm:minMaxReactiveLimits minQ="-10.0" maxQ="32.0"/>
            </iidm:generator>
            <iidm:load id="B70-L1" loadType="UNDEFINED" p0="66.0" q0="20.0" bus="B70" connectableBus="B70" p="66.0" q="20.0"/>
        </iidm:voltageLevel>
    </iidm:substation>
    <iidm:substation id="S12">
        <iidm:voltageLevel id="VL71" nominalV="138.0" topologyKind="BUS_BREAKER">
            <iidm:busBreakerTopology>
                <iidm:bus id="B71" name="NPORTSMT" v="136.18455109744482" angle="1.1786581171922093"/>
            </iidm:busBreakerTopology>
        </iidm:voltageLevel>
    </iidm:substation>
    <iidm:substation id="S13">
        <iidm:voltageLevel id="VL72" nominalV="138.0" topologyKind="BUS_BREAKER">
            <iidm:busBreakerTopology>
                <iidm:bus id="B72" name="HILLSBRO" v="135.24" angle="0.08132700043254451"/>
            </iidm:busBreakerTopology>
            <iidm:generator id="B72-G1" energySource="OTHER" minP="-10000.0" maxP="10000.0" voltageRegulatorOn="true" targetP="0.0" targetV="135.24" targetQ="-11.13" bus="B72" connectableBus="B72" p="-0.0" q="11.130250288830974">
                <iidm:regulatingTerminal id="B72-L1"/>
                <iidm:minMaxReactiveLimits minQ="-100.0" maxQ="100.0"/>
            </iidm:generator>
            <iidm:load id="B72-L1" loadType="UNDEFINED" p0="12.0" q0="0.0" bus="B72" connectableBus="B72" p="12.0" q="0.0"/>
        </iidm:voltageLevel>
    </iidm:substation>
    <iidm:substation id="S15">
        <iidm:voltageLevel id="VL73" nominalV="138.0" topologyKind="BUS_BREAKER">
            <iidm:busBreakerTopology>
                <iidm:bus id="B73" name="SARGENTS" v="136.758" angle="0.9671653244663645"/>
            </iidm:busBreakerTopology>
            <iidm:generator id="B73-G1" energySource="OTHER" minP="-10000.0" maxP="10000.0" voltageRegulatorOn="true" targetP="0.0" targetV="136.758" targetQ="9.651" bus="B73" connectableBus="B73" p="-0.0" q="-9.651269043288067">
                <iidm:regulatingTerminal id="B73-L1"/>
                <iidm:minMaxReactiveLimits minQ="-100.0" maxQ="100.0"/>
            </iidm:generator>
            <iidm:load id="B73-L1" loadType="UNDEFINED" p0="6.0" q0="0.0" bus="B73" connectableBus="B73" p="6.0" q="0.0"/>
        </iidm:voltageLevel>
    </iidm:substation>
    <iidm:substation id="S16">
        <iidm:voltageLevel id="VL74" nominalV="138.0" topologyKind="BUS_BREAKER">
            <iidm:busBreakerTopology>
                <iidm:bus id="B74" name="BELLEFNT" v="132.204" angle="0.6405970143012476"/>
            </iidm:busBreakerTopology>
            <iidm:generator id="B74-G1" energySource="OTHER" minP="-10000.0" maxP="10000.0" voltageRegulatorOn="true" targetP="0.0" targetV="132.204" targetQ="-5.628" bus="B74" connectableBus="B74" p="-0.0" q="5.627412689890086">
                <iidm:regulatingTerminal id="B74-L1"/>
                <iidm:minMaxReactiveLimits minQ="-6.0" maxQ="9.0"/>
            </iidm:generator>
            <iidm:load id="B74-L1" loadType="UNDEFINED" p0="68.0" q0="27.0" bus="B74" connectableBus="B74" p="68.0" q="27.0"/>
            <iidm:shunt id="B74-SH 1" currentSectionCount="1" voltageRegulatorOn="false" bus="B74" connectableBus="B74" q="-11.013168" bPerSection="6.30119722747322E-4" gPerSection="0.0" maximumSectionCount="1"/>
        </iidm:voltageLevel>
    </iidm:substation>
    <iidm:substation id="S18">
        <iidm:voltageLevel id="VL75" nominalV="138.0" topologyKind="BUS_BREAKER">
            <iidm:busBreakerTopology>
                <iidm:bus id="B75" name="STHPOINT" v="133.49192998681033" angle="1.902376690836475"/>
            </iidm:busBreakerTopology>
            <iidm:load id="B75-L1" loadType="UNDEFINED" p0="47.0" q0="11.0" bus="B75" connectableBus="B75" p="47.0" q="11.0"/>
        </iidm:voltageLevel>
    </iidm:substation>
    <iidm:substation id="S20">
        <iidm:voltageLevel id="VL76" nominalV="138.0" topologyKind="BUS_BREAKER">
            <iidm:busBreakerTopology>
                <iidm:bus id="B76" name="DARRAH" v="130.134" angle="0.7724856945594277"/>
            </iidm:busBreakerTopology>
            <iidm:generator id="B76-G1" energySource="OTHER" minP="-10000.0" maxP="10000.0" voltageRegulatorOn="true" targetP="0.0" targetV="130.134" targetQ="5.269" bus="B76" connectableBus="B76" p="-0.0" q="-5.268987849369275">
                <iidm:regulatingTerminal id="B76-L1"/>
                <iidm:minMaxReactiveLimits minQ="-8.0" maxQ="23.0"/>
            </iidm:generator>
            <iidm:load id="B76-L1" loadType="UNDEFINED" p0="68.0" q0="36.0" bus="B76" connectableBus="B76" p="68.0" q="36.0"/>
        </iidm:voltageLevel>
    </iidm:substation>
    <iidm:substation id="S22">
        <iidm:voltageLevel id="VL77" nominalV="138.0" topologyKind="BUS_BREAKER">
            <iidm:busBreakerTopology>
                <iidm:bus id="B77" name="TURNER" v="138.828" angle="5.7264762976995005"/>
            </iidm:busBreakerTopology>
            <iidm:generator id="B77-G1" energySource="OTHER" minP="-10000.0" maxP="10000.0" voltageRegulatorOn="true" targetP="0.0" targetV="138.828" targetQ="11.943" bus="B77" connectableBus="B77" p="-0.0" q="-11.941114857744221">
                <iidm:regulatingTerminal id="B77-L1"/>
                <iidm:minMaxReactiveLimits minQ="-20.0" maxQ="70.0"/>
            </iidm:generator>
            <iidm:load id="B77-L1" loadType="UNDEFINED" p0="61.0" q0="28.0" bus="B77" connectableBus="B77" p="61.0" q="28.0"/>
        </iidm:voltageLevel>
    </iidm:substation>
    <iidm:substation id="S24">
        <iidm:voltageLevel id="VL78" nominalV="138.0" topologyKind="BUS_BREAKER">
            <iidm:busBreakerTopology>
                <iidm:bus id="B78" name="CHEMICAL" v="138.47248971443088" angle="5.422632759657954"/>
            </iidm:busBreakerTopology>
            <iidm:load id="B78-L1" loadType="UNDEFINED" p0="71.0" q0="26.0" bus="B78" connectableBus="B78" p="71.0" q="26.0"/>
        </iidm:voltageLevel>
    </iidm:substation>
    <iidm:substation id="S11">
        <iidm:voltageLevel id="VL79" nominalV="138.0" topologyKind="BUS_BREAKER">
            <iidm:busBreakerTopology>
                <iidm:bus id="B79" name="CAPITLHL" v="139.2727693924872" angle="5.7218041164130184"/>
            </iidm:busBreakerTopology>
            <iidm:load id="B79-L1" loadType="UNDEFINED" p0="39.0" q0="32.0" bus="B79" connectableBus="B79" p="39.0" q="32.0"/>
            <iidm:shunt id="B79-SH 1" currentSectionCount="1" voltageRegulatorOn="false" bus="B79" connectableBus="B79" q="-20.370619926751647" bPerSection="0.0010501995379122034" gPerSection="0.0" maximumSectionCount="1"/>
        </iidm:voltageLevel>
    </iidm:substation>
    <iidm:substation id="S1">
        <iidm:voltageLevel id="VL80" nominalV="138.0" topologyKind="BUS_BREAKER">
            <iidm:busBreakerTopology>
                <iidm:bus id="B80" name="CABINCRK" v="143.52" angle="7.967403194316314"/>
            </iidm:busBreakerTopology>
            <iidm:generator id="B80-G1" energySource="OTHER" minP="-10000.0" maxP="10000.0" voltageRegulatorOn="true" targetP="477.0" targetV="143.52" targetQ="105.05" bus="B80" connectableBus="B80" p="-477.0" q="-105.04075482252748">
                <iidm:regulatingTerminal id="B80-L1"/>
                <iidm:minMaxReactiveLimits minQ="-165.0" maxQ="280.0"/>
            </iidm:generator>
            <iidm:load id="B80-L1" loadType="UNDEFINED" p0="130.0" q0="26.0" bus="B80" connectableBus="B80" p="130.0" q="26.0"/>
        </iidm:voltageLevel>
        <iidm:voltageLevel id="VL81" nominalV="138.0" topologyKind="BUS_BREAKER">
            <iidm:busBreakerTopology>
                <iidm:bus id="B81" name="KANAWHA" v="137.55946638164568" angle="7.11938292440769"/>
            </iidm:busBreakerTopology>
        </iidm:voltageLevel>
        <iidm:twoWindingsTransformer id="T-81-80-1" r="0.0" x="7.046279999999999" g="0.0" b="0.0" ratedU1="138.0" ratedU2="138.0" bus1="B81" connectableBus1="B81" voltageLevelId1="VL81" bus2="B80" connectableBus2="B80" voltageLevelId2="VL80" p1="-44.35056376805719" q1="75.54483337821787" p2="44.35056376805719" q2="-73.0466539415655">
            <iidm:ratioTapChanger lowTapPosition="0" tapPosition="0" loadTapChangingCapabilities="false">
                <iidm:step r="0.0" x="0.0" g="14.387028510966848" b="14.387028510966848" rho="1.06951871657754"/>
            </iidm:ratioTapChanger>
        </iidm:twoWindingsTransformer>
    </iidm:substation>
    <iidm:substation id="S2">
        <iidm:voltageLevel id="VL82" nominalV="138.0" topologyKind="BUS_BREAKER">
            <iidm:busBreakerTopology>
                <iidm:bus id="B82" name="LOGAN" v="136.44646329960776" angle="6.24692631392361"/>
            </iidm:busBreakerTopology>
            <iidm:load id="B82-L1" loadType="UNDEFINED" p0="54.0" q0="27.0" bus="B82" connectableBus="B82" p="54.0" q="27.0"/>
            <iidm:shunt id="B82-SH 1" currentSectionCount="1" voltageRegulatorOn="false" bus="B82" connectableBus="B82" q="-19.552234138806142" bPerSection="0.0010501995379122034" gPerSection="0.0" maximumSectionCount="1"/>
        </iidm:voltageLevel>
    </iidm:substation>
    <iidm:substation id="S3">
        <iidm:voltageLevel id="VL83" nominalV="138.0" topologyKind="BUS_BREAKER">
            <iidm:busBreakerTopology>
                <iidm:bus id="B83" name="SPRIGG" v="135.86374875056964" angle="7.4370213326946555"/>
            </iidm:busBreakerTopology>
            <iidm:load id="B83-L1" loadType="UNDEFINED" p0="20.0" q0="10.0" bus="B83" connectableBus="B83" p="20.0" q="10.0"/>
            <iidm:shunt id="B83-SH 1" currentSectionCount="1" voltageRegulatorOn="false" bus="B83" connectableBus="B83" q="-9.692794698885693" bPerSection="5.250997689561017E-4" gPerSection="0.0" maximumSectionCount="1"/>
        </iidm:voltageLevel>
    </iidm:substation>
    <iidm:substation id="S4">
        <iidm:voltageLevel id="VL84" nominalV="138.0" topologyKind="BUS_BREAKER">
            <iidm:busBreakerTopology>
                <iidm:bus id="B84" name="BETSYLNE" v="135.20575762223385" angle="9.970483919519292"/>
            </iidm:busBreakerTopology>
            <iidm:load id="B84-L1" loadType="UNDEFINED" p0="11.0" q0="7.0" bus="B84" connectableBus="B84" p="11.0" q="7.0"/>
        </iidm:voltageLevel>
    </iidm:substation>
    <iidm:substation id="S5">
        <iidm:voltageLevel id="VL85" nominalV="138.0" topologyKind="BUS_BREAKER">
            <iidm:busBreakerTopology>
                <iidm:bus id="B85" name="BEAVERCK" v="135.93" angle="11.524551068411828"/>
            </iidm:busBreakerTopology>
            <iidm:generator id="B85-G1" energySource="OTHER" minP="-10000.0" maxP="10000.0" voltageRegulatorOn="true" targetP="0.0" targetV="135.93" targetQ="-5.768" bus="B85" connectableBus="B85" p="-0.0" q="5.769489367709461">
                <iidm:regulatingTerminal id="B85-L1"/>
                <iidm:minMaxReactiveLimits minQ="-8.0" maxQ="23.0"/>
...